*SPEF "1481-1998"
*DESIGN "SYSTEM_TOP"
*DATE "Wed Sep  3 19:56:48 2025"
*VENDOR "Synopsys, Inc."
*PROGRAM "icc2 /home/synopsys/icc2/O-2018.06-SP1/linux64/nwtn/bin/icc2_exec"
*VERSION "O-2018.06-SP1 Jul 17, 2018"
*DESIGN_FLOW "ICC2 SPEF DR"
*DIVIDER /
*DELIMITER :
*T_UNIT 1 NS
*C_UNIT 1 FF
*R_UNIT 1 OHM
*L_UNIT 1 HENRY

// XY_UNIT 1 UM
// PARASITIC_TECH minTLU at -40.000 degree

*NAME_MAP
*1 RX_IN
*2 FUN_REF_CLK
*3 FUN_UART_CLK
*4 FUN_RST
*5 SCAN_CLK
*6 SCAN_RST
*7 TEST_MODE
*8 TX_OUT
*9 SCAN_EN
*10 SCAN_IN_1
*11 SCAN_OUT_1
*12 SCAN_IN_2
*13 SCAN_OUT_2
*14 SCAN_IN_3
*15 SCAN_OUT_3
*16 SCAN_IN_4
*17 SCAN_OUT_4
*18 VDD
*19 VSS
*20 U0_REG_FILE/PLACE_HFSBUF_131_59
*21 U0_ASYN_FIFO/U0_SYNC_W2R/PLACE_HFSBUF_846_99
*22 PLACE_HFSBUF_908_100
*23 U0_ALU/PLACE_HFSBUF_609_276
*24 PLACE_HFSINV_907_243
*25 U0_MUX2x1/CTS_cto_buf_7382
*26 U0_UART/U0_RX/PLACE_HFSBUF_104_259
*27 U0_REG_FILE/PLACE_HFSBUF_524_238
*28 Mux3x1/PLACE_HFSINV_259_268
*29 U0_ASYN_FIFO/U0_FIFO_WR/PLACE_ropt_h_inst_9173
*30 U0_MUX2x1/CTS_cts_inv_9776838
*31 U0_UART/U0_TX/PLACE_HFSBUF_982_101
*32 U0_ALU/PLACE_HFSINV_798_278
*33 U0_REG_FILE/PLACE_HFSBUF_4269_135
*34 U0_REG_FILE/PLACE_HFSBUF_4371_136
*35 U0_MUX2x1/U2
*36 U0_MUX2x1/U1
*37 U1_MUX2x1/U2
*38 U1_MUX2x1/U1
*39 U2_MUX2x1/U2
*40 U2_MUX2x1/U1
*41 U3_MUX2x1/U2
*42 U3_MUX2x1/U1
*43 U4_MUX2x1/U2
*44 U4_MUX2x1/U1
*45 U5_MUX2x1/U2
*46 U5_MUX2x1/U1
*47 U6_MUX2x1/U2
*48 U6_MUX2x1/U1
*49 RST_SYNC_1/sync_rst_reg[0]
*50 RST_SYNC_1/sync_rst_reg[1]
*51 RST_SYNC_2/sync_rst_reg[0]
*52 RST_SYNC_2/sync_rst_reg[1]
*53 TX_CLK_DIV/U3
*54 TX_CLK_DIV/U4
*55 TX_CLK_DIV/U5
*56 TX_CLK_DIV/U6
*57 TX_CLK_DIV/U7
*58 TX_CLK_DIV/U14
*59 TX_CLK_DIV/U15
*60 TX_CLK_DIV/U16
*61 TX_CLK_DIV/U17
*62 TX_CLK_DIV/U18
*63 TX_CLK_DIV/U19
*64 TX_CLK_DIV/U20
*65 TX_CLK_DIV/U23
*66 TX_CLK_DIV/U25
*67 TX_CLK_DIV/U27
*68 TX_CLK_DIV/U29
*69 TX_CLK_DIV/U30
*70 TX_CLK_DIV/U32
*71 TX_CLK_DIV/U33
*72 TX_CLK_DIV/U34
*73 TX_CLK_DIV/U35
*74 TX_CLK_DIV/U36
*75 TX_CLK_DIV/U37
*76 TX_CLK_DIV/U38
*77 TX_CLK_DIV/U39
*78 TX_CLK_DIV/U40
*79 TX_CLK_DIV/U41
*80 TX_CLK_DIV/U42
*81 TX_CLK_DIV/U44
*82 TX_CLK_DIV/U46
*83 TX_CLK_DIV/U48
*84 TX_CLK_DIV/U50
*85 TX_CLK_DIV/U51
*86 TX_CLK_DIV/U52
*87 TX_CLK_DIV/U53
*88 TX_CLK_DIV/U54
*89 TX_CLK_DIV/U55
*90 TX_CLK_DIV/U56
*91 TX_CLK_DIV/U57
*92 TX_CLK_DIV/U58
*93 TX_CLK_DIV/U59
*94 TX_CLK_DIV/U60
*95 TX_CLK_DIV/counter_reg[0]
*96 TX_CLK_DIV/counter_reg[6]
*97 TX_CLK_DIV/odd_flag_toggle_reg
*98 TX_CLK_DIV/counter_reg[5]
*99 TX_CLK_DIV/counter_reg[4]
*100 TX_CLK_DIV/counter_reg[3]
*101 TX_CLK_DIV/counter_reg[2]
*102 TX_CLK_DIV/counter_reg[1]
*103 TX_CLK_DIV/div_clk_reg
*104 TX_CLK_DIV/U9
*105 TX_CLK_DIV/U10
*106 TX_CLK_DIV/U11
*107 TX_CLK_DIV/U12
*108 TX_CLK_DIV/U13
*109 TX_CLK_DIV/U21
*110 TX_CLK_DIV/U22
*111 TX_CLK_DIV/U24
*112 TX_CLK_DIV/U26
*113 TX_CLK_DIV/U28
*114 TX_CLK_DIV/U31
*115 TX_CLK_DIV/U43
*116 TX_CLK_DIV/U45
*117 TX_CLK_DIV/U47
*118 U0_REG_FILE/PLACE_HFSBUF_4429_137
*119 TX_CLK_DIV/add_30/U1_1_5
*120 TX_CLK_DIV/add_30/U1_1_4
*121 TX_CLK_DIV/add_30/U1_1_3
*122 TX_CLK_DIV/add_30/U1_1_2
*123 TX_CLK_DIV/add_30/U1_1_1
*124 TX_CLK_DIV/add_30/U1
*125 TX_CLK_DIV/add_30/U2
*126 RX_CLK_DIV/U3
*127 RX_CLK_DIV/U4
*128 RX_CLK_DIV/U5
*129 RX_CLK_DIV/U6
*130 RX_CLK_DIV/U7
*131 RX_CLK_DIV/U8
*132 RX_CLK_DIV/U13
*133 RX_CLK_DIV/U14
*134 RX_CLK_DIV/U15
*135 RX_CLK_DIV/U16
*136 RX_CLK_DIV/U17
*137 RX_CLK_DIV/U18
*138 RX_CLK_DIV/U19
*139 RX_CLK_DIV/U22
*140 RX_CLK_DIV/U24
*141 RX_CLK_DIV/U26
*142 RX_CLK_DIV/U28
*143 RX_CLK_DIV/U29
*144 RX_CLK_DIV/U31
*145 RX_CLK_DIV/U32
*146 RX_CLK_DIV/U33
*147 RX_CLK_DIV/U34
*148 RX_CLK_DIV/U35
*149 RX_CLK_DIV/U36
*150 RX_CLK_DIV/U37
*151 RX_CLK_DIV/U38
*152 RX_CLK_DIV/U39
*153 RX_CLK_DIV/U40
*154 RX_CLK_DIV/U41
*155 RX_CLK_DIV/U43
*156 RX_CLK_DIV/U45
*157 RX_CLK_DIV/U46
*158 RX_CLK_DIV/U48
*159 RX_CLK_DIV/U49
*160 RX_CLK_DIV/U50
*161 RX_CLK_DIV/U51
*162 RX_CLK_DIV/U52
*163 RX_CLK_DIV/U53
*164 RX_CLK_DIV/U54
*165 RX_CLK_DIV/U55
*166 RX_CLK_DIV/U56
*167 RX_CLK_DIV/U57
*168 TX_CLK_DIV/PLACE_APS_CLK_ISO_36
*169 RX_CLK_DIV/PLACE_APS_CLK_ISO_37
*170 RX_CLK_DIV/counter_reg[0]
*171 RX_CLK_DIV/counter_reg[6]
*172 RX_CLK_DIV/odd_flag_toggle_reg
*173 RX_CLK_DIV/counter_reg[5]
*174 RX_CLK_DIV/counter_reg[4]
*175 RX_CLK_DIV/counter_reg[3]
*176 RX_CLK_DIV/counter_reg[2]
*177 RX_CLK_DIV/counter_reg[1]
*178 RX_CLK_DIV/div_clk_reg
*179 RX_CLK_DIV/U9
*180 RX_CLK_DIV/U10
*181 RX_CLK_DIV/U11
*182 RX_CLK_DIV/U12
*183 RX_CLK_DIV/U20
*184 RX_CLK_DIV/U21
*185 RX_CLK_DIV/U23
*186 RX_CLK_DIV/U25
*187 RX_CLK_DIV/U27
*188 RX_CLK_DIV/U30
*189 RX_CLK_DIV/U42
*190 RX_CLK_DIV/U44
*191 RX_CLK_DIV/U47
*192 U0_REG_FILE/PLACE_HFSBUF_4317_138
*193 RX_CLK_DIV/add_30/U1_1_5
*194 RX_CLK_DIV/add_30/U1_1_4
*195 RX_CLK_DIV/add_30/U1_1_3
*196 RX_CLK_DIV/add_30/U1_1_2
*197 RX_CLK_DIV/add_30/U1_1_1
*198 RX_CLK_DIV/add_30/U1
*199 RX_CLK_DIV/add_30/U2
*200 Mux3x1/U7
*201 Mux3x1/U14
*202 Mux3x1/U15
*203 Mux3x1/U19
*204 Mux3x1/PLACE_HFSINV_197_270
*205 PLACE_HFSBUF_224_269
*206 Mux3x1/U18
*207 Mux3x1/U20
*208 U0_REG_FILE/PLACE_HFSINV_920_39
*209 U0_REG_FILE/PLACE_HFSINV_740_41
*210 U0_REG_FILE/U57
*211 U0_REG_FILE/U60
*212 U0_REG_FILE/U66
*213 U0_REG_FILE/U67
*214 U0_REG_FILE/U68
*215 U0_REG_FILE/U69
*216 U0_REG_FILE/U71
*217 U0_REG_FILE/U72
*218 U0_REG_FILE/U74
*219 U0_REG_FILE/U75
*220 U0_REG_FILE/U76
*221 U0_REG_FILE/U77
*222 U0_REG_FILE/U78
*223 U0_REG_FILE/U80
*224 U0_REG_FILE/U81
*225 U0_REG_FILE/U83
*226 U0_REG_FILE/U84
*227 U0_REG_FILE/U85
*228 U0_REG_FILE/U89
*229 U0_REG_FILE/U91
*230 U0_REG_FILE/U92
*231 U0_REG_FILE/U93
*232 U0_REG_FILE/U95
*233 U0_REG_FILE/U96
*234 U0_REG_FILE/U100
*235 U0_REG_FILE/U101
*236 U0_REG_FILE/U102
*237 U0_REG_FILE/U103
*238 U0_REG_FILE/U115
*239 U0_REG_FILE/U116
*240 U0_REG_FILE/U117
*241 U0_REG_FILE/U118
*242 U0_REG_FILE/U119
*243 U0_REG_FILE/U120
*244 U0_REG_FILE/U123
*245 U0_REG_FILE/U127
*246 U0_REG_FILE/U128
*247 U0_REG_FILE/U129
*248 U0_REG_FILE/U130
*249 U0_REG_FILE/U131
*250 U0_REG_FILE/U132
*251 U0_REG_FILE/U135
*252 U0_REG_FILE/U136
*253 U0_REG_FILE/U137
*254 U0_REG_FILE/U138
*255 U0_REG_FILE/U139
*256 U0_REG_FILE/U140
*257 U0_REG_FILE/U141
*258 U0_REG_FILE/U142
*259 U0_REG_FILE/U147
*260 U0_REG_FILE/U148
*261 U0_REG_FILE/U149
*262 U0_REG_FILE/U150
*263 U0_REG_FILE/U153
*264 U0_REG_FILE/U154
*265 U0_REG_FILE/U156
*266 U0_REG_FILE/U157
*267 U0_REG_FILE/U158
*268 U0_REG_FILE/U159
*269 U0_REG_FILE/U160
*270 U0_REG_FILE/U165
*271 U0_REG_FILE/U166
*272 U0_REG_FILE/U167
*273 U0_REG_FILE/U168
*274 U0_REG_FILE/U169
*275 U0_REG_FILE/U170
*276 U0_REG_FILE/U176
*277 U0_REG_FILE/U178
*278 U0_REG_FILE/U179
*279 U0_REG_FILE/U180
*280 U0_REG_FILE/U181
*281 U0_REG_FILE/U182
*282 U0_REG_FILE/U7
*283 U0_REG_FILE/U10
*284 U0_REG_FILE/U18
*285 U0_REG_FILE/U23
*286 U0_REG_FILE/U25
*287 U0_REG_FILE/U26
*288 U0_REG_FILE/U29
*289 U0_REG_FILE/U30
*290 U0_REG_FILE/U31
*291 U0_REG_FILE/U33
*292 U0_REG_FILE/U34
*293 U0_REG_FILE/U37
*294 U0_REG_FILE/U38
*295 U0_REG_FILE/U39
*296 U0_REG_FILE/U40
*297 U0_REG_FILE/U45
*298 U0_REG_FILE/PLACE_HFSBUF_123_57
*299 U0_REG_FILE/U65
*300 U0_REG_FILE/U70
*301 U0_REG_FILE/U73
*302 U0_REG_FILE/U79
*303 U0_REG_FILE/U82
*304 U0_REG_FILE/U86
*305 U0_REG_FILE/U87
*306 U0_REG_FILE/U90
*307 U0_REG_FILE/U94
*308 U0_REG_FILE/U97
*309 U0_REG_FILE/U112
*310 U0_REG_FILE/U113
*311 U0_REG_FILE/PLACE_HFSBUF_632_212
*312 CTS_SCAN_CLK_btd1732
*313 U0_REG_FILE/U125
*314 U0_REG_FILE/U126
*315 U0_REG_FILE/U133
*316 U0_REG_FILE/U134
*317 U0_REG_FILE/U152
*318 U0_REG_FILE/PLACE_HFSBUF_107_51
*319 U0_REG_FILE/PLACE_HFSBUF_287_52
*320 U0_ASYN_FIFO/U0_FIFO_WR/PLACE_copt_h_inst_8933
*321 U0_REG_FILE/U192
*322 PLACE_HFSBUF_383_271
*323 U0_UART/U0_RX/PLACE_HFSBUF_85_258
*324 U0_REG_FILE/PLACE_HFSBUF_78_226
*325 U0_REG_FILE/U228
*326 U0_REG_FILE/PLACE_HFSBUF_201_60
*327 U0_REG_FILE/PLACE_HFSBUF_71_61
*328 U0_REG_FILE/PLACE_HFSBUF_520_62
*329 U0_REG_FILE/PLACE_HFSBUF_578_63
*330 U0_REG_FILE/PLACE_HFSBUF_647_64
*331 U0_REG_FILE/PLACE_HFSBUF_795_65
*332 U0_ASYN_FIFO/U0_FIFO_MEM_CNTRL/PLACE_HFSBUF_2663_66
*333 U0_REG_FILE/PLACE_HFSBUF_2590_67
*334 U0_ASYN_FIFO/U1_SYNC_R2W/PLACE_HFSBUF_2898_68
*335 PLACE_HFSBUF_2817_69
*336 U0_ALU/PLACE_HFSBUF_2763_70
*337 U0_ALU/PLACE_HFSBUF_2533_71
*338 PLACE_HFSBUF_3159_72
*339 RST_SYNC_2/CTS_dftopt3_btd1733
*340 U0_REG_FILE/PLACE_HFSBUF_162_55
*341 U0_REG_FILE/PLACE_HFSBUF_105_56
*342 U0_REG_FILE/PLACE_HFSBUF_105_58
*343 U0_ASYN_FIFO/U0_FIFO_MEM_CNTRL/PLACE_HFSBUF_3892_74
*344 U0_ASYN_FIFO/U0_FIFO_MEM_CNTRL/PLACE_HFSBUF_3949_75
*345 U0_REG_FILE/U261
*346 U0_ASYN_FIFO/U0_FIFO_MEM_CNTRL/PLACE_HFSBUF_3777_76
*347 U0_ASYN_FIFO/U0_FIFO_MEM_CNTRL/PLACE_HFSBUF_3726_77
*348 U0_REG_FILE/U267
*349 U0_REG_FILE/U268
*350 U0_REG_FILE/U269
*351 U0_REG_FILE/U270
*352 U0_REG_FILE/U271
*353 U0_REG_FILE/U272
*354 U0_REG_FILE/U273
*355 U0_REG_FILE/U275
*356 U0_REG_FILE/U276
*357 U0_REG_FILE/U278
*358 U0_REG_FILE/U280
*359 U0_REG_FILE/U282
*360 U0_REG_FILE/U283
*361 U0_REG_FILE/U284
*362 U0_REG_FILE/U285
*363 U0_REG_FILE/U286
*364 U0_REG_FILE/U288
*365 U0_REG_FILE/U289
*366 U0_REG_FILE/U290
*367 U0_REG_FILE/U291
*368 U0_REG_FILE/U292
*369 U0_REG_FILE/U293
*370 U0_REG_FILE/U294
*371 U0_REG_FILE/U295
*372 U0_REG_FILE/U296
*373 U0_REG_FILE/U297
*374 U0_REG_FILE/U298
*375 U0_REG_FILE/U299
*376 U0_REG_FILE/U300
*377 U0_REG_FILE/U301
*378 U0_REG_FILE/U302
*379 U0_REG_FILE/U303
*380 U0_REG_FILE/U305
*381 U0_REG_FILE/U306
*382 U0_REG_FILE/U307
*383 U0_REG_FILE/U308
*384 U0_REG_FILE/U309
*385 U0_REG_FILE/U310
*386 U0_REG_FILE/U312
*387 U0_REG_FILE/U313
*388 U0_REG_FILE/U314
*389 U0_REG_FILE/U315
*390 U0_REG_FILE/U316
*391 U0_REG_FILE/U317
*392 U0_REG_FILE/U318
*393 U0_REG_FILE/U319
*394 U0_REG_FILE/U320
*395 U0_REG_FILE/U321
*396 U0_REG_FILE/U323
*397 U0_REG_FILE/U324
*398 U0_REG_FILE/U325
*399 U0_REG_FILE/U326
*400 U0_REG_FILE/U328
*401 U0_REG_FILE/U329
*402 U0_REG_FILE/U330
*403 U0_REG_FILE/U331
*404 U0_REG_FILE/U332
*405 U0_REG_FILE/U333
*406 U0_REG_FILE/U334
*407 U0_REG_FILE/U335
*408 U0_REG_FILE/U336
*409 U0_REG_FILE/U338
*410 U0_REG_FILE/U339
*411 U0_REG_FILE/U340
*412 U0_REG_FILE/U341
*413 U0_REG_FILE/U342
*414 U0_REG_FILE/U343
*415 U0_REG_FILE/U344
*416 U0_REG_FILE/U345
*417 U0_REG_FILE/U370
*418 U0_ASYN_FIFO/U0_FIFO_MEM_CNTRL/PLACE_HFSBUF_4144_78
*419 U0_ASYN_FIFO/U0_FIFO_MEM_CNTRL/PLACE_HFSBUF_3431_79
*420 U0_ASYN_FIFO/U0_FIFO_MEM_CNTRL/PLACE_HFSBUF_3494_80
*421 U0_REG_FILE/U174
*422 U0_REG_FILE/RdData_Valid_reg
*423 U0_REG_FILE/RdData_reg[7]
*424 U0_REG_FILE/RdData_reg[6]
*425 U0_REG_FILE/RdData_reg[5]
*426 U0_REG_FILE/RdData_reg[4]
*427 U0_REG_FILE/RdData_reg[3]
*428 U0_REG_FILE/RdData_reg[2]
*429 U0_REG_FILE/RdData_reg[1]
*430 U0_REG_FILE/RdData_reg[0]
*431 U0_REG_FILE/regfile_reg[15][7]
*432 U0_REG_FILE/regfile_reg[15][6]
*433 U0_REG_FILE/regfile_reg[15][5]
*434 U0_REG_FILE/regfile_reg[15][4]
*435 U0_REG_FILE/regfile_reg[15][3]
*436 U0_REG_FILE/regfile_reg[15][2]
*437 U0_REG_FILE/regfile_reg[15][1]
*438 U0_REG_FILE/regfile_reg[15][0]
*439 U0_REG_FILE/regfile_reg[14][7]
*440 U0_REG_FILE/regfile_reg[14][6]
*441 U0_REG_FILE/regfile_reg[13][7]
*442 U0_REG_FILE/regfile_reg[13][6]
*443 U0_REG_FILE/regfile_reg[13][5]
*444 U0_REG_FILE/regfile_reg[13][4]
*445 U0_REG_FILE/regfile_reg[13][3]
*446 U0_REG_FILE/regfile_reg[13][2]
*447 U0_REG_FILE/regfile_reg[13][1]
*448 U0_REG_FILE/regfile_reg[13][0]
*449 U0_REG_FILE/regfile_reg[12][5]
*450 U0_REG_FILE/regfile_reg[12][4]
*451 U0_REG_FILE/regfile_reg[11][7]
*452 U0_REG_FILE/regfile_reg[11][6]
*453 U0_REG_FILE/regfile_reg[11][5]
*454 U0_REG_FILE/regfile_reg[11][4]
*455 U0_REG_FILE/regfile_reg[11][3]
*456 U0_REG_FILE/regfile_reg[11][2]
*457 U0_REG_FILE/regfile_reg[11][1]
*458 U0_REG_FILE/regfile_reg[11][0]
*459 U0_REG_FILE/regfile_reg[10][3]
*460 U0_REG_FILE/regfile_reg[10][2]
*461 U0_REG_FILE/regfile_reg[9][7]
*462 U0_REG_FILE/regfile_reg[9][6]
*463 U0_REG_FILE/regfile_reg[9][5]
*464 U0_REG_FILE/regfile_reg[9][4]
*465 U0_REG_FILE/regfile_reg[9][3]
*466 U0_REG_FILE/regfile_reg[9][2]
*467 U0_REG_FILE/regfile_reg[9][1]
*468 U0_REG_FILE/regfile_reg[9][0]
*469 U0_REG_FILE/regfile_reg[8][7]
*470 U0_REG_FILE/regfile_reg[8][6]
*471 U0_REG_FILE/regfile_reg[8][5]
*472 U0_REG_FILE/regfile_reg[8][4]
*473 U0_REG_FILE/regfile_reg[8][3]
*474 U0_REG_FILE/regfile_reg[8][2]
*475 U0_REG_FILE/regfile_reg[8][1]
*476 U0_REG_FILE/regfile_reg[8][0]
*477 U0_REG_FILE/regfile_reg[7][7]
*478 U0_REG_FILE/regfile_reg[7][6]
*479 U0_REG_FILE/regfile_reg[7][5]
*480 U0_REG_FILE/regfile_reg[7][4]
*481 U0_REG_FILE/regfile_reg[7][3]
*482 U0_REG_FILE/regfile_reg[7][2]
*483 U0_REG_FILE/regfile_reg[7][1]
*484 U0_REG_FILE/regfile_reg[7][0]
*485 U0_REG_FILE/regfile_reg[6][7]
*486 U0_REG_FILE/regfile_reg[6][6]
*487 U0_REG_FILE/regfile_reg[6][5]
*488 U0_REG_FILE/regfile_reg[6][4]
*489 U0_REG_FILE/regfile_reg[6][3]
*490 U0_REG_FILE/regfile_reg[6][2]
*491 U0_REG_FILE/regfile_reg[6][1]
*492 U0_REG_FILE/regfile_reg[6][0]
*493 U0_REG_FILE/regfile_reg[5][7]
*494 U0_REG_FILE/regfile_reg[5][6]
*495 U0_REG_FILE/regfile_reg[5][5]
*496 U0_REG_FILE/regfile_reg[5][4]
*497 U0_REG_FILE/regfile_reg[5][3]
*498 U0_REG_FILE/regfile_reg[5][2]
*499 U0_REG_FILE/regfile_reg[5][1]
*500 U0_REG_FILE/regfile_reg[5][0]
*501 U0_REG_FILE/regfile_reg[4][7]
*502 U0_REG_FILE/regfile_reg[4][6]
*503 U0_REG_FILE/regfile_reg[4][5]
*504 U0_REG_FILE/regfile_reg[4][4]
*505 U0_REG_FILE/regfile_reg[4][3]
*506 U0_REG_FILE/regfile_reg[4][2]
*507 U0_REG_FILE/regfile_reg[4][1]
*508 U0_REG_FILE/regfile_reg[4][0]
*509 U0_REG_FILE/regfile_reg[3][7]
*510 U0_REG_FILE/regfile_reg[3][6]
*511 U0_REG_FILE/regfile_reg[3][5]
*512 U0_REG_FILE/regfile_reg[3][4]
*513 U0_REG_FILE/regfile_reg[3][3]
*514 U0_REG_FILE/regfile_reg[3][2]
*515 U0_REG_FILE/regfile_reg[3][1]
*516 U0_REG_FILE/regfile_reg[3][0]
*517 U0_REG_FILE/regfile_reg[2][7]
*518 U0_REG_FILE/regfile_reg[2][6]
*519 U0_REG_FILE/regfile_reg[2][5]
*520 U0_REG_FILE/regfile_reg[2][4]
*521 U0_REG_FILE/regfile_reg[2][3]
*522 U0_REG_FILE/regfile_reg[2][2]
*523 U0_REG_FILE/regfile_reg[2][1]
*524 U0_REG_FILE/regfile_reg[1][7]
*525 U0_REG_FILE/regfile_reg[1][6]
*526 U0_REG_FILE/regfile_reg[1][5]
*527 U0_REG_FILE/regfile_reg[1][4]
*528 U0_REG_FILE/regfile_reg[1][3]
*529 U0_REG_FILE/regfile_reg[1][2]
*530 U0_REG_FILE/regfile_reg[1][1]
*531 U0_REG_FILE/regfile_reg[0][7]
*532 U0_REG_FILE/regfile_reg[0][6]
*533 U0_REG_FILE/regfile_reg[0][5]
*534 U0_REG_FILE/regfile_reg[0][4]
*535 U0_REG_FILE/regfile_reg[0][3]
*536 U0_REG_FILE/regfile_reg[0][2]
*537 U0_REG_FILE/regfile_reg[0][1]
*538 U0_REG_FILE/regfile_reg[0][0]
*539 U0_REG_FILE/regfile_reg[1][0]
*540 U0_REG_FILE/regfile_reg[14][5]
*541 U0_REG_FILE/regfile_reg[12][7]
*542 U0_REG_FILE/regfile_reg[12][6]
*543 U0_REG_FILE/regfile_reg[14][1]
*544 U0_REG_FILE/regfile_reg[14][0]
*545 U0_REG_FILE/regfile_reg[12][1]
*546 U0_REG_FILE/regfile_reg[12][0]
*547 U0_REG_FILE/regfile_reg[14][2]
*548 U0_REG_FILE/regfile_reg[12][2]
*549 U0_REG_FILE/regfile_reg[14][4]
*550 U0_REG_FILE/regfile_reg[14][3]
*551 U0_REG_FILE/regfile_reg[12][3]
*552 U0_REG_FILE/regfile_reg[10][6]
*553 U0_REG_FILE/regfile_reg[10][7]
*554 U0_REG_FILE/regfile_reg[10][5]
*555 U0_REG_FILE/regfile_reg[10][1]
*556 U0_REG_FILE/regfile_reg[10][0]
*557 U0_REG_FILE/regfile_reg[10][4]
*558 U0_REG_FILE/PLACE_HFSBUF_102_198
*559 U0_REG_FILE/U53
*560 U0_REG_FILE/U105
*561 U0_REG_FILE/U107
*562 U0_REG_FILE/U109
*563 U0_REG_FILE/U111
*564 U0_REG_FILE/U124
*565 U0_REG_FILE/U144
*566 U0_REG_FILE/U145
*567 U0_REG_FILE/U161
*568 U0_REG_FILE/PLACE_HFSBUF_220_50
*569 U0_ASYN_FIFO/U0_FIFO_WR/PLACE_copt_h_inst_8934
*570 U0_REG_FILE/U376
*571 U0_ALU/PLACE_copt_d_inst_5859
*572 U0_ALU/PLACE_HFSINV_497_298
*573 U0_REG_FILE/U17
*574 U0_REG_FILE/PLACE_HFSINV_297_113
*575 U0_REG_FILE/U186
*576 U0_REG_FILE/U379
*577 U0_REG_FILE/U380
*578 U0_ALU/PLACE_HFSINV_709_282
*579 U0_ALU/PLACE_HFSINV_784_326
*580 U0_ALU/PLACE_HFSINV_646_286
*581 U0_ALU/PLACE_HFSINV_783_317
*582 U0_ALU/PLACE_HFSINV_674_294
*583 U0_ALU/PLACE_HFSBUF_460_312
*584 U0_REG_FILE/PLACE_HFSBUF_219_227
*585 U0_REG_FILE/PLACE_HFSBUF_318_228
*586 U0_REG_FILE/PLACE_HFSBUF_459_213
*587 U0_REG_FILE/U240
*588 U0_REG_FILE/U250
*589 U0_REG_FILE/PLACE_HFSINV_182_194
*590 U0_REG_FILE/PLACE_HFSINV_330_195
*591 U0_REG_FILE/U347
*592 U0_REG_FILE/PLACE_HFSINV_524_123
*593 U0_REG_FILE/PLACE_HFSINV_305_121
*594 U0_REG_FILE/U357
*595 U0_REG_FILE/PLACE_HFSBUF_934_214
*596 U0_UART/U0_RX/PLACE_HFSINV_534_229
*597 U0_ASYN_FIFO/U0_FIFO_WR/PLACE_ropt_h_inst_9174
*598 PLACE_optlc_8881
*599 U0_REG_FILE/PLACE_HFSINV_1195_216
*600 U0_REG_FILE/PLACE_HFSBUF_709_217
*601 PLACE_optlc_8883
*602 U0_ALU/PLACE_HFSINV_1252_233
*603 U0_SYS_CTRL/PLACE_copt_h_inst_8935
*604 U0_REG_FILE/regfile_reg[2][0]
*605 PLACE_optlc_8884
*606 U0_REG_FILE/PLACE_ropt_h_inst_9175
*607 PLACE_optlc_8886
*608 U0_ALU/PLACE_HFSINV_702_290
*609 PLACE_optlc_8888
*610 PLACE_optlc_8889
*611 U0_ALU/PLACE_HFSINV_259_265
*612 U0_REG_FILE/U9
*613 TX_CLK_DIV/CTS_dftopt2_btd1734
*614 U0_REG_FILE/U12
*615 U0_REG_FILE/U14
*616 PLACE_optlc_8891
*617 U0_REG_FILE/U16
*618 U0_REG_FILE/U19
*619 U0_REG_FILE/U20
*620 PLACE_optlc_8893
*621 PLACE_optlc_8894
*622 PLACE_optlc_8896
*623 U0_REG_FILE/U24
*624 U0_REG_FILE/PLACE_HFSINV_282_115
*625 U0_REG_FILE/PLACE_HFSINV_299_117
*626 PLACE_optlc_8899
*627 U0_REG_FILE/PLACE_HFSINV_347_119
*628 U0_UART/U0_RX/deser_inst/PLACE_HFSINV_346_124
*629 PLACE_optlc_8903
*630 U0_REG_FILE/U48
*631 U0_REG_FILE/U49
*632 PLACE_optlc_8905
*633 PLACE_optlc_8907
*634 U0_DATA_SYNC/PLACE_HFSINV_738_197
*635 U0_ASYN_FIFO/U0_FIFO_MEM_CNTRL/PLACE_HFSINV_341_200
*636 U0_ASYN_FIFO/U0_FIFO_MEM_CNTRL/PLACE_HFSBUF_37_201
*637 U0_REG_FILE/U61
*638 U0_ASYN_FIFO/U0_FIFO_MEM_CNTRL/PLACE_HFSINV_765_126
*639 U0_ASYN_FIFO/U0_FIFO_MEM_CNTRL/PLACE_HFSBUF_105_202
*640 PLACE_optlc_8909
*641 U0_ASYN_FIFO/U0_FIFO_MEM_CNTRL/PLACE_HFSINV_763_204
*642 PLACE_optlc_8912
*643 PLACE_optlc_8917
*644 PLACE_optlc_8918
*645 PLACE_optlc_8921
*646 U0_SYS_CTRL/PLACE_copt_d_inst_5847
*647 CTS_cto_buf_7487
*648 U0_MUX2x1/CTS_cts_inv_9796840
*649 U0_REG_FILE/U173
*650 U0_REG_FILE/U175
*651 U0_REG_FILE/U177
*652 U0_REG_FILE/U187
*653 U0_ASYN_FIFO/U0_FIFO_MEM_CNTRL/PLACE_HFSINV_741_206
*654 U0_REG_FILE/PLACE_HFSINV_823_43
*655 U0_REG_FILE/U191
*656 U0_REG_FILE/U193
*657 CTS_cto_buf_7523
*658 U0_REG_FILE/PLACE_HFSINV_800_45
*659 U0_REG_FILE/U198
*660 U0_REG_FILE/U199
*661 U0_REG_FILE/PLACE_HFSINV_711_47
*662 U0_MUX2x1/CTS_cts_inv_9816842
*663 U0_REG_FILE/U202
*664 U0_REG_FILE/U203
*665 U0_REG_FILE/PLACE_HFSINV_827_49
*666 U0_ASYN_FIFO/U0_FIFO_MEM_CNTRL/PLACE_HFSBUF_3274_81
*667 U0_REG_FILE/U208
*668 U0_REG_FILE/U209
*669 U0_DATA_SYNC/PLACE_HFSBUF_3339_82
*670 U0_REG_FILE/U212
*671 U0_REG_FILE/U215
*672 U0_SYS_CTRL/PLACE_HFSINV_473_247
*673 U0_ASYN_FIFO/U0_FIFO_MEM_CNTRL/PLACE_HFSINV_886_128
*674 U0_MUX2x1/CTS_cts_inv_9826843
*675 U0_REG_FILE/U223
*676 U0_REG_FILE/U224
*677 U0_REG_FILE/U225
*678 U0_REG_FILE/U226
*679 U0_REG_FILE/U241
*680 U0_REG_FILE/PLACE_HFSBUF_700_239
*681 U0_REG_FILE/PLACE_HFSBUF_997_240
*682 U0_REG_FILE/U249
*683 U0_REG_FILE/U251
*684 U0_REG_FILE/U254
*685 U0_REG_FILE/U258
*686 PLACE_HFSBUF_3659_83
*687 U0_REG_FILE/U262
*688 U0_REG_FILE/U266
*689 U0_ASYN_FIFO/U0_FIFO_MEM_CNTRL/PLACE_HFSINV_348_130
*690 U0_REG_FILE/PLACE_HFSBUF_1785_84
*691 U0_REG_FILE/PLACE_HFSBUF_1910_85
*692 U0_REG_FILE/U281
*693 U0_UART/U0_RX/counter_inst/PLACE_HFSINV_87_207
*694 U0_MUX2x1/CTS_cts_inv_10076868
*695 U0_REG_FILE/U311
*696 U0_REG_FILE/U327
*697 U0_REG_FILE/U337
*698 U0_MUX2x1/CTS_cts_inv_10086869
*699 U0_REG_FILE/PLACE_HFSINV_1147_242
*700 U0_REG_FILE/U350
*701 U0_REG_FILE/U353
*702 U0_REG_FILE/U355
*703 U0_REG_FILE/PLACE_HFSBUF_1847_86
*704 U0_REG_FILE/U362
*705 U0_REG_FILE/U363
*706 U0_REG_FILE/U366
*707 U0_REG_FILE/U367
*708 U0_REG_FILE/U373
*709 U0_REG_FILE/U375
*710 PLACE_HFSINV_350_248
*711 U0_REG_FILE/U378
*712 U0_SYS_CTRL/PLACE_copt_d_inst_5848
*713 U0_REG_FILE/U382
*714 U0_REG_FILE/U384
*715 U0_MUX2x1/CTS_cts_inv_10096870
*716 U0_ALU/PLACE_HFSINV_319_209
*717 U0_ASYN_FIFO/U0_FIFO_MEM_CNTRL/PLACE_HFSBUF_101_210
*718 U0_REG_FILE/U388
*719 U0_REG_FILE/U389
*720 U0_REG_FILE/U390
*721 U0_REG_FILE/U391
*722 U0_REG_FILE/U396
*723 U0_REG_FILE/U397
*724 U0_REG_FILE/U398
*725 U0_REG_FILE/U399
*726 U0_REG_FILE/U400
*727 U0_REG_FILE/PLACE_HFSBUF_826_218
*728 U0_REG_FILE/PLACE_HFSBUF_114_219
*729 U0_REG_FILE/PLACE_HFSBUF_404_220
*730 U0_REG_FILE/PLACE_HFSINV_940_221
*731 U0_ALU/PLACE_HFSBUF_112_222
*732 U0_REG_FILE/U406
*733 U0_REG_FILE/U407
*734 U0_ASYN_FIFO/U0_FIFO_MEM_CNTRL/PLACE_HFSINV_336_132
*735 CTS_cto_buf_7524
*736 U0_MUX2x1/CTS_cts_inv_10116872
*737 U0_ASYN_FIFO/U0_FIFO_MEM_CNTRL/PLACE_HFSINV_501_134
*738 U0_REG_FILE/U411
*739 U0_REG_FILE/U412
*740 U0_REG_FILE/U413
*741 U0_REG_FILE/U414
*742 U0_REG_FILE/U415
*743 U0_REG_FILE/U416
*744 U0_REG_FILE/U417
*745 U0_REG_FILE/U418
*746 U0_REG_FILE/U419
*747 U0_REG_FILE/U420
*748 U0_REG_FILE/U421
*749 U0_REG_FILE/U422
*750 U0_REG_FILE/PLACE_HFSBUF_4205_139
*751 U0_REG_FILE/PLACE_HFSBUF_4588_140
*752 U0_REG_FILE/PLACE_HFSBUF_4672_141
*753 U0_REG_FILE/PLACE_HFSBUF_4810_143
*754 U0_UART/U0_RX/PLACE_HFSBUF_5209_144
*755 U0_UART/U0_RX/counter_inst/PLACE_HFSBUF_5156_145
*756 PLACE_HFSBUF_5080_146
*757 PLACE_HFSBUF_5316_147
*758 PLACE_HFSBUF_5393_148
*759 PLACE_HFSBUF_5460_149
*760 PLACE_HFSBUF_5576_150
*761 CTS_cto_buf_7525
*762 U0_UART/U0_TX/PLACE_HFSBUF_1046_102
*763 U0_ASYN_FIFO/U0_FIFO_MEM_CNTRL/PLACE_HFSINV_710_250
*764 PLACE_HFSBUF_5641_151
*765 U0_UART/U0_TX/U0_SER/U11
*766 U0_UART/U0_TX/U0_SER/U12
*767 U0_UART/U0_TX/U0_SER/U13
*768 U0_UART/U0_TX/U0_SER/U14
*769 U0_UART/U0_TX/U0_SER/U15
*770 U0_UART/U0_TX/U0_SER/U16
*771 U0_UART/U0_TX/U0_SER/U17
*772 U0_UART/U0_TX/U0_SER/U18
*773 U0_UART/U0_TX/U0_SER/U20
*774 U0_UART/U0_TX/U0_SER/U21
*775 U0_UART/U0_TX/U0_SER/U22
*776 U0_UART/U0_TX/U0_SER/U3
*777 U0_UART/U0_TX/U0_PARITY_CALC/PLACE_HFSBUF_1085_103
*778 PLACE_HFSBUF_5504_152
*779 U0_UART/U0_TX/U0_SER/P_DATA_Valid_reg[7]
*780 U0_UART/U0_TX/U0_SER/P_DATA_Valid_reg[6]
*781 U0_UART/U0_TX/U0_SER/P_DATA_Valid_reg[5]
*782 U0_UART/U0_TX/U0_SER/P_DATA_Valid_reg[4]
*783 U0_UART/U0_TX/U0_SER/P_DATA_Valid_reg[3]
*784 U0_UART/U0_TX/U0_SER/P_DATA_Valid_reg[2]
*785 U0_UART/U0_TX/U0_SER/P_DATA_Valid_reg[1]
*786 U0_UART/U0_TX/U0_SER/P_DATA_Valid_reg[0]
*787 U0_UART/U0_TX/U0_SER/counter_reg[0]
*788 U0_UART/U0_TX/U0_SER/counter_reg[1]
*789 U0_UART/U0_TX/U0_SER/counter_reg[2]
*790 U0_UART/U0_TX/U0_SER/U4
*791 U0_UART/U0_TX/U0_SER/U6
*792 U0_UART/U0_TX/U0_SER/U7
*793 U0_UART/U0_TX/U0_SER/U10
*794 U0_UART/U0_TX/U0_SER/U19
*795 U0_UART/U0_TX/U0_SER/U23
*796 U0_UART/U0_TX/U0_SER/U24
*797 PLACE_HFSBUF_5823_153
*798 U0_UART/U0_TX/U0_FSM/U13
*799 U0_UART/U0_TX/U0_FSM/U14
*800 U0_UART/U0_TX/U0_FSM/U15
*801 U0_UART/U0_TX/U0_FSM/U16
*802 U0_UART/U0_TX/U0_FSM/U17
*803 U0_UART/U0_TX/U0_FSM/U19
*804 U0_UART/U0_TX/U0_FSM/U20
*805 U0_UART/U0_TX/U0_FSM/U21
*806 U0_UART/U0_TX/U0_FSM/U3
*807 U0_UART/U0_TX/U0_FSM/U4
*808 U0_UART/U0_TX/U0_FSM/cs_reg[0]
*809 U0_UART/U0_TX/U0_FSM/cs_reg[2]
*810 U0_UART/U0_TX/U0_FSM/cs_reg[1]
*811 U0_UART/U0_TX/U0_FSM/busy_reg
*812 U0_UART/U0_TX/U0_FSM/U5
*813 U0_UART/U0_TX/U0_FSM/U7
*814 U0_UART/U0_TX/U0_FSM/U8
*815 U0_UART/U0_TX/U0_FSM/U9
*816 U0_UART/U0_TX/U0_FSM/U10
*817 U0_UART/U0_TX/U0_FSM/U11
*818 U0_UART/U0_TX/U0_FSM/PLACE_HFSINV_566_193
*819 U0_UART/U0_TX/U0_PARITY_CALC/U3
*820 U0_UART/U0_TX/U0_PARITY_CALC/U4
*821 U0_UART/U0_TX/U0_PARITY_CALC/U5
*822 U0_UART/U0_TX/U0_PARITY_CALC/U6
*823 U0_UART/U0_TX/U0_PARITY_CALC/U7
*824 U0_UART/U0_TX/U0_PARITY_CALC/U8
*825 U0_UART/U0_TX/U0_PARITY_CALC/U10
*826 U0_UART/U0_TX/U0_PARITY_CALC/U12
*827 U0_UART/U0_TX/U0_PARITY_CALC/U14
*828 U0_UART/U0_TX/U0_PARITY_CALC/U16
*829 U0_UART/U0_TX/U0_PARITY_CALC/U18
*830 U0_UART/U0_TX/U0_PARITY_CALC/U20
*831 U0_UART/U0_TX/U0_PARITY_CALC/U22
*832 CTS_cto_buf_7526
*833 U0_UART/U0_TX/U0_PARITY_CALC/P_DATA_Valid_reg[7]
*834 U0_UART/U0_TX/U0_PARITY_CALC/P_DATA_Valid_reg[6]
*835 U0_UART/U0_TX/U0_PARITY_CALC/P_DATA_Valid_reg[5]
*836 U0_UART/U0_TX/U0_PARITY_CALC/P_DATA_Valid_reg[4]
*837 U0_UART/U0_TX/U0_PARITY_CALC/P_DATA_Valid_reg[3]
*838 U0_UART/U0_TX/U0_PARITY_CALC/P_DATA_Valid_reg[2]
*839 U0_UART/U0_TX/U0_PARITY_CALC/P_DATA_Valid_reg[1]
*840 U0_UART/U0_TX/U0_PARITY_CALC/P_DATA_Valid_reg[0]
*841 U0_UART/U0_TX/U0_PARITY_CALC/par_bit_reg
*842 U0_UART/U0_TX/PLACE_HFSINV_874_236
*843 PLACE_HFSBUF_6556_154
*844 U0_UART/U0_TX/U0_MUX/U5
*845 U0_UART/U0_TX/U0_MUX/U6
*846 U0_UART/U0_TX/U0_MUX/U7
*847 U0_UART/U0_TX/U0_MUX/TX_OUT_reg
*848 U0_UART/U0_TX/U0_MUX/U3
*849 U0_UART/U0_TX/U0_MUX/U4
*850 U0_UART/U0_RX/counter_inst/PLACE_HFSBUF_382_105
*851 U0_UART/U0_RX/PLACE_HFSBUF_456_106
*852 U0_UART/U0_TX/PLACE_HFSBUF_604_237
*853 U0_ASYN_FIFO/U0_FIFO_MEM_CNTRL/PLACE_HFSBUF_102_211
*854 U0_REG_FILE/PLACE_HFSBUF_1206_155
*855 U0_UART/U0_RX/fsm_inst/U24
*856 U0_UART/U0_RX/fsm_inst/U27
*857 U0_UART/U0_RX/fsm_inst/U28
*858 U0_UART/U0_RX/fsm_inst/U29
*859 U0_UART/U0_RX/fsm_inst/U30
*860 U0_UART/U0_RX/fsm_inst/U31
*861 U0_UART/U0_RX/fsm_inst/U32
*862 U0_UART/U0_RX/fsm_inst/U33
*863 U0_UART/U0_RX/fsm_inst/U34
*864 U0_UART/U0_RX/fsm_inst/U35
*865 U0_UART/U0_RX/fsm_inst/U36
*866 U0_UART/U0_RX/fsm_inst/U37
*867 U0_UART/U0_RX/fsm_inst/U38
*868 U0_UART/U0_RX/fsm_inst/U39
*869 U0_UART/U0_RX/fsm_inst/U3
*870 U0_UART/U0_RX/fsm_inst/U5
*871 U0_UART/U0_RX/fsm_inst/U11
*872 U0_UART/U0_RX/fsm_inst/U13
*873 U0_UART/U0_RX/fsm_inst/U15
*874 U0_UART/U0_RX/fsm_inst/U18
*875 U0_UART/U0_RX/fsm_inst/U19
*876 U0_UART/U0_RX/fsm_inst/U20
*877 U0_UART/U0_RX/fsm_inst/U43
*878 U0_UART/U0_RX/fsm_inst/U46
*879 U0_UART/U0_RX/fsm_inst/U47
*880 U0_UART/U0_RX/fsm_inst/U49
*881 U0_UART/U0_RX/fsm_inst/U51
*882 U0_UART/U0_RX/fsm_inst/cs_reg[0]
*883 U0_UART/U0_RX/fsm_inst/cs_reg[2]
*884 U0_UART/U0_RX/fsm_inst/cs_reg[1]
*885 U0_UART/U0_RX/fsm_inst/U4
*886 U0_UART/U0_RX/fsm_inst/U6
*887 U0_UART/U0_RX/fsm_inst/U7
*888 U0_UART/U0_RX/fsm_inst/U8
*889 U0_UART/U0_RX/fsm_inst/U9
*890 U0_UART/U0_RX/fsm_inst/U10
*891 U0_UART/U0_RX/fsm_inst/U12
*892 U0_UART/U0_RX/fsm_inst/U14
*893 U0_UART/U0_RX/fsm_inst/U16
*894 U0_UART/U0_RX/fsm_inst/U17
*895 U0_UART/U0_RX/fsm_inst/U21
*896 U0_UART/U0_RX/fsm_inst/U22
*897 U0_UART/U0_RX/fsm_inst/U23
*898 U0_UART/U0_RX/fsm_inst/U25
*899 U0_UART/U0_RX/fsm_inst/U26
*900 U0_UART/U0_RX/fsm_inst/U40
*901 U0_UART/U0_RX/fsm_inst/U41
*902 U0_UART/U0_RX/fsm_inst/U44
*903 U0_UART/U0_RX/fsm_inst/U48
*904 U0_UART/U0_RX/fsm_inst/U50
*905 U0_UART/U0_RX/fsm_inst/U42
*906 U0_UART/U0_RX/counter_inst/U14
*907 U0_UART/U0_RX/counter_inst/U15
*908 U0_UART/U0_RX/counter_inst/U16
*909 U0_UART/U0_RX/counter_inst/U17
*910 U0_UART/U0_RX/counter_inst/U18
*911 U0_UART/U0_RX/counter_inst/U19
*912 U0_UART/U0_RX/counter_inst/U20
*913 U0_UART/U0_RX/counter_inst/U21
*914 U0_UART/U0_RX/counter_inst/U22
*915 U0_UART/U0_RX/counter_inst/U23
*916 U0_UART/U0_RX/counter_inst/U25
*917 U0_UART/U0_RX/counter_inst/U26
*918 U0_UART/U0_RX/counter_inst/U27
*919 U0_UART/U0_RX/counter_inst/U28
*920 U0_UART/U0_RX/counter_inst/U29
*921 U0_UART/U0_RX/counter_inst/U30
*922 U0_UART/U0_RX/counter_inst/add_24/U1_1_1
*923 U0_UART/U0_RX/counter_inst/add_24/U1_1_2
*924 U0_UART/U0_RX/counter_inst/add_24/U1_1_3
*925 U0_UART/U0_RX/counter_inst/add_24/U1_1_4
*926 U0_UART/U0_RX/counter_inst/U3
*927 U0_UART/U0_RX/counter_inst/U4
*928 U0_UART/U0_RX/counter_inst/U5
*929 U0_UART/U0_RX/counter_inst/U37
*930 U0_UART/U0_RX/counter_inst/U39
*931 U0_UART/U0_RX/counter_inst/U41
*932 U0_UART/U0_RX/counter_inst/U43
*933 U0_UART/U0_RX/counter_inst/U45
*934 U0_UART/U0_RX/counter_inst/U46
*935 U0_UART/U0_RX/counter_inst/U47
*936 U0_UART/U0_RX/counter_inst/U48
*937 U0_UART/U0_RX/counter_inst/U49
*938 U0_UART/U0_RX/counter_inst/U50
*939 U0_UART/U0_RX/counter_inst/U51
*940 U0_UART/U0_RX/counter_inst/U52
*941 U0_UART/U0_RX/counter_inst/edge_cnt_reg[0]
*942 U0_UART/U0_RX/counter_inst/edge_cnt_reg[5]
*943 U0_UART/U0_RX/counter_inst/edge_cnt_reg[4]
*944 U0_UART/U0_RX/counter_inst/edge_cnt_reg[3]
*945 U0_UART/U0_RX/counter_inst/edge_cnt_reg[2]
*946 U0_UART/U0_RX/counter_inst/edge_cnt_reg[1]
*947 U0_UART/U0_RX/counter_inst/bit_cnt_reg[0]
*948 U0_UART/U0_RX/counter_inst/bit_cnt_reg[1]
*949 U0_UART/U0_RX/counter_inst/bit_cnt_reg[2]
*950 U0_UART/U0_RX/counter_inst/bit_cnt_reg[3]
*951 U0_UART/U0_RX/counter_inst/U6
*952 U0_UART/U0_RX/counter_inst/U7
*953 U0_UART/U0_RX/counter_inst/U8
*954 U0_UART/U0_RX/counter_inst/U9
*955 U0_UART/U0_RX/counter_inst/U10
*956 U0_UART/U0_RX/counter_inst/U11
*957 U0_UART/U0_RX/counter_inst/U12
*958 U0_UART/U0_RX/counter_inst/U13
*959 U0_UART/U0_RX/counter_inst/U24
*960 U0_UART/U0_RX/counter_inst/U31
*961 U0_UART/U0_RX/counter_inst/U32
*962 U0_UART/U0_RX/counter_inst/U34
*963 U0_ALU/PLACE_HFSINV_249_223
*964 U0_UART/U0_RX/counter_inst/U38
*965 U0_UART/U0_RX/counter_inst/U40
*966 U0_UART/U0_RX/counter_inst/U42
*967 U0_UART/U0_RX/counter_inst/U44
*968 U0_UART/U0_RX/counter_inst/U33
*969 U0_REG_FILE/PLACE_HFSBUF_1292_156
*970 U0_UART/U0_RX/samp_inst/add_18/U1_1_2
*971 U0_UART/U0_RX/samp_inst/U4
*972 U0_UART/U0_RX/samp_inst/U5
*973 U0_UART/U0_RX/samp_inst/U6
*974 U0_UART/U0_RX/samp_inst/U9
*975 U0_UART/U0_RX/samp_inst/U10
*976 U0_UART/U0_RX/samp_inst/U11
*977 U0_UART/U0_RX/samp_inst/U12
*978 U0_UART/U0_RX/samp_inst/U13
*979 U0_UART/U0_RX/samp_inst/U14
*980 U0_UART/U0_RX/samp_inst/U15
*981 U0_UART/U0_RX/samp_inst/U17
*982 U0_UART/U0_RX/samp_inst/U19
*983 U0_UART/U0_RX/samp_inst/U21
*984 U0_UART/U0_RX/samp_inst/U23
*985 U0_UART/U0_RX/samp_inst/U24
*986 U0_UART/U0_RX/samp_inst/U26
*987 U0_UART/U0_RX/samp_inst/U28
*988 U0_UART/U0_RX/samp_inst/U30
*989 U0_UART/U0_RX/samp_inst/U31
*990 U0_UART/U0_RX/samp_inst/U33
*991 U0_UART/U0_RX/samp_inst/U34
*992 U0_UART/U0_RX/samp_inst/U36
*993 U0_UART/U0_RX/samp_inst/U38
*994 U0_UART/U0_RX/samp_inst/U39
*995 U0_UART/U0_RX/samp_inst/U42
*996 U0_UART/U0_RX/samp_inst/U44
*997 U0_UART/U0_RX/samp_inst/U47
*998 U0_UART/U0_RX/samp_inst/U48
*999 U0_UART/U0_RX/samp_inst/samples_reg[2]
*1000 U0_UART/U0_RX/samp_inst/samples_reg[1]
*1001 U0_UART/U0_RX/samp_inst/samples_reg[0]
*1002 U0_UART/U0_RX/samp_inst/sampled_bit_reg
*1003 U0_UART/U0_RX/samp_inst/U3
*1004 U0_UART/U0_RX/samp_inst/U7
*1005 U0_UART/U0_RX/samp_inst/U8
*1006 U0_UART/U0_RX/samp_inst/U16
*1007 U0_UART/U0_RX/samp_inst/U18
*1008 U0_UART/U0_RX/samp_inst/U20